71543365
     RDKit          3D

 39 41  0  0  1  0  0  0  0  0999 V2000
   -0.4029   -1.8042    0.4337 N   0  0  0  0  0  0  0  0  0  0  0  0
   -4.9114    0.8271   -0.9072 N   0  0  0  0  0  0  0  0  0  0  0  0
    1.0246   -1.5221    0.2105 C   0  0  1  0  0  0  0  0  0  0  0  0
    1.6679   -0.5572    1.2059 C   0  0  1  0  0  0  0  0  0  0  0  0
    1.9188   -2.0583    1.3269 C   0  0  0  0  0  0  0  0  0  0  0  0
   -1.2364   -1.0821   -0.5430 C   0  0  0  0  0  0  0  0  0  0  0  0
   -1.1881    0.4542   -0.3056 C   0  0  0  0  0  0  0  0  0  0  0  0
   -2.6803   -1.6455   -0.5112 C   0  0  0  0  0  0  0  0  0  0  0  0
    2.7980    0.3038    0.6710 C   0  0  0  0  0  0  0  0  0  0  0  0
   -2.4492    1.1420   -0.8347 C   0  0  0  0  0  0  0  0  0  0  0  0
   -3.6023   -0.8187    0.3936 C   0  0  0  0  0  0  0  0  0  0  0  0
   -3.7138    0.6519   -0.0817 C   0  0  0  0  0  0  0  0  0  0  0  0
    2.9158    1.6121    1.1714 C   0  0  0  0  0  0  0  0  0  0  0  0
    3.7209   -0.1323   -0.3062 C   0  0  0  0  0  0  0  0  0  0  0  0
    3.9276    2.4622    0.7159 C   0  0  0  0  0  0  0  0  0  0  0  0
    4.7310    0.7229   -0.7576 C   0  0  0  0  0  0  0  0  0  0  0  0
    4.8348    2.0180   -0.2473 C   0  0  0  0  0  0  0  0  0  0  0  0
   -0.7074   -1.5547    1.4048 H   0  0  0  0  0  0  0  0  0  0  0  0
   -4.8071    0.2772   -1.7911 H   0  0  0  0  0  0  0  0  0  0  0  0
   -4.9912    1.8359   -1.1725 H   0  0  0  0  0  0  0  0  0  0  0  0
    1.4349   -1.6629   -0.8122 H   0  0  0  0  0  0  0  0  0  0  0  0
    1.0036   -0.1416    1.9946 H   0  0  0  0  0  0  0  0  0  0  0  0
    1.3846   -2.5379    2.1749 H   0  0  0  0  0  0  0  0  0  0  0  0
    2.9140   -2.4202    0.9977 H   0  0  0  0  0  0  0  0  0  0  0  0
   -0.8464   -1.2848   -1.5673 H   0  0  0  0  0  0  0  0  0  0  0  0
   -0.2958    0.8803   -0.8139 H   0  0  0  0  0  0  0  0  0  0  0  0
   -1.0953    0.6815    0.7791 H   0  0  0  0  0  0  0  0  0  0  0  0
   -2.6761   -2.7035   -0.1687 H   0  0  0  0  0  0  0  0  0  0  0  0
   -3.1010   -1.6431   -1.5411 H   0  0  0  0  0  0  0  0  0  0  0  0
   -2.5348    0.9325   -1.9240 H   0  0  0  0  0  0  0  0  0  0  0  0
   -2.3496    2.2425   -0.7133 H   0  0  0  0  0  0  0  0  0  0  0  0
   -4.6079   -1.2918    0.4313 H   0  0  0  0  0  0  0  0  0  0  0  0
   -3.1956   -0.8418    1.4288 H   0  0  0  0  0  0  0  0  0  0  0  0
   -3.8350    1.2809    0.8289 H   0  0  0  0  0  0  0  0  0  0  0  0
    2.2205    1.9780    1.9172 H   0  0  0  0  0  0  0  0  0  0  0  0
    3.6716   -1.1257   -0.7283 H   0  0  0  0  0  0  0  0  0  0  0  0
    4.0074    3.4672    1.1100 H   0  0  0  0  0  0  0  0  0  0  0  0
    5.4341    0.3805   -1.5060 H   0  0  0  0  0  0  0  0  0  0  0  0
    5.6174    2.6776   -0.5991 H   0  0  0  0  0  0  0  0  0  0  0  0
  3  1  1  0
  1  6  1  0
  2 12  1  0
  3  4  1  0
  3  5  1  0
  4  5  1  0
  4  9  1  0
  6  7  1  0
  6  8  1  0
  7 10  1  0
  8 11  1  0
  9 13  2  0
  9 14  1  0
 10 12  1  0
 11 12  1  0
 13 15  1  0
 14 16  2  0
 15 17  2  0
 16 17  1  0
  1 18  1  0
  2 19  1  0
  2 20  1  0
  3 21  1  6
  4 22  1  1
  5 23  1  0
  5 24  1  0
  6 25  1  0
  7 26  1  0
  7 27  1  0
  8 28  1  0
  8 29  1  0
 10 30  1  0
 10 31  1  0
 11 32  1  0
 11 33  1  0
 12 34  1  0
 13 35  1  0
 14 36  1  0
 15 37  1  0
 16 38  1  0
 17 39  1  0
M  END
>  <PUBCHEM_COMPOUND_CID>  (1) 
71543365

>  <PUBCHEM_COMPOUND_CANONICALIZED>  (1) 
1

>  <PUBCHEM_CACTVS_COMPLEXITY>  (1) 
239

>  <PUBCHEM_CACTVS_HBOND_ACCEPTOR>  (1) 
2

>  <PUBCHEM_CACTVS_HBOND_DONOR>  (1) 
2

>  <PUBCHEM_CACTVS_ROTATABLE_BOND>  (1) 
3

>  <PUBCHEM_CACTVS_SUBSKEYS>  (1) 
AAADceBzAAAAAAAAAAAAAAAAGAAAAAAAAAAwYAAAAAAAAAABAAAAHAAQAAAADSjBGAQwAILAAACAAiBCAAACAAAgAAAIiIAIAIgIICKAkRGEIAAgkACIiAcQgMAOgAAAAAAAAAAAAQAAAAAAAAAAAAAAAA==

>  <PUBCHEM_IUPAC_OPENEYE_NAME>  (1) 
N4-[(1R,2S)-2-phenylcyclopropyl]cyclohexane-1,4-diamine

>  <PUBCHEM_IUPAC_CAS_NAME>  (1) 
N4-[(1R,2S)-2-phenylcyclopropyl]cyclohexane-1,4-diamine

>  <PUBCHEM_IUPAC_NAME_MARKUP>  (1) 
4-<I>N</I>-[(1<I>R</I>,2<I>S</I>)-2-phenylcyclopropyl]cyclohexane-1,4-diamine

>  <PUBCHEM_IUPAC_NAME>  (1) 
4-N-[(1R,2S)-2-phenylcyclopropyl]cyclohexane-1,4-diamine

>  <PUBCHEM_IUPAC_SYSTEMATIC_NAME>  (1) 
N4-[(1R,2S)-2-phenylcyclopropyl]cyclohexane-1,4-diamine

>  <PUBCHEM_IUPAC_TRADITIONAL_NAME>  (1) 
(4-aminocyclohexyl)-[(1R,2S)-2-phenylcyclopropyl]amine

>  <PUBCHEM_IUPAC_INCHI>  (1) 
InChI=1S/C15H22N2/c16-12-6-8-13(9-7-12)17-15-10-14(15)11-4-2-1-3-5-11/h1-5,12-15,17H,6-10,16H2/t12?,13?,14-,15+/m0/s1

>  <PUBCHEM_IUPAC_INCHIKEY>  (1) 
ALHBJBCQLJZYON-PFSRBDOWSA-N

>  <PUBCHEM_XLOGP3_AA>  (1) 
2.1

>  <PUBCHEM_EXACT_MASS>  (1) 
230.178298710

>  <PUBCHEM_MOLECULAR_FORMULA>  (1) 
C15H22N2

>  <PUBCHEM_MOLECULAR_WEIGHT>  (1) 
230.35

>  <PUBCHEM_OPENEYE_CAN_SMILES>  (1) 
C1CC(CCC1N)NC2CC2C3=CC=CC=C3

>  <PUBCHEM_OPENEYE_ISO_SMILES>  (1) 
C1CC(CCC1N)N[C@@H]2C[C@H]2C3=CC=CC=C3

>  <PUBCHEM_CACTVS_TPSA>  (1) 
38

>  <PUBCHEM_MONOISOTOPIC_WEIGHT>  (1) 
230.178298710

>  <PUBCHEM_TOTAL_CHARGE>  (1) 
0

>  <PUBCHEM_HEAVY_ATOM_COUNT>  (1) 
17

>  <PUBCHEM_ATOM_DEF_STEREO_COUNT>  (1) 
2

>  <PUBCHEM_ATOM_UDEF_STEREO_COUNT>  (1) 
0

>  <PUBCHEM_BOND_DEF_STEREO_COUNT>  (1) 
0

>  <PUBCHEM_BOND_UDEF_STEREO_COUNT>  (1) 
0

>  <PUBCHEM_ISOTOPIC_ATOM_COUNT>  (1) 
0

>  <PUBCHEM_COMPONENT_COUNT>  (1) 
1

>  <PUBCHEM_CACTVS_TAUTO_COUNT>  (1) 
-1

>  <PUBCHEM_COORDINATE_TYPE>  (1) 
1
5
255

>  <PUBCHEM_BONDANNOTATIONS>  (1) 
3  1  6
13  15  8
14  16  8
15  17  8
16  17  8
4  9  5
9  13  8
9  14  8

$$$$
